
---------- Begin Simulation Statistics ----------
sim_seconds                                  0.000023                       # Number of seconds simulated
sim_ticks                                    23264500                       # Number of ticks simulated
final_tick                                   23264500                       # Number of ticks from beginning of simulation (restored from checkpoints and never reset)
sim_freq                                 1000000000000                       # Frequency of simulated ticks
host_inst_rate                                  65230                       # Simulator instruction rate (inst/s)
host_op_rate                                   117692                       # Simulator op (including micro ops) rate (op/s)
host_tick_rate                              265054430                       # Simulator tick rate (ticks/s)
host_mem_usage                                4494096                       # Number of bytes of host memory used
host_seconds                                     0.09                       # Real time elapsed on the host
sim_insts                                        5723                       # Number of instructions simulated
sim_ops                                         10328                       # Number of ops (including micro ops) simulated
system.voltage_domain.voltage                       1                       # Voltage in Volts
system.clk_domain.clock                          1000                       # Clock period in ticks
system.mem_ctrls.bytes_read::ruby.dir_cntrl0        29312                       # Number of bytes read from this memory
system.mem_ctrls.bytes_read::total              29312                       # Number of bytes read from this memory
system.mem_ctrls.num_reads::ruby.dir_cntrl0          229                       # Number of read requests responded to by this memory
system.mem_ctrls.num_reads::total                 229                       # Number of read requests responded to by this memory
system.mem_ctrls.bw_read::ruby.dir_cntrl0   1259945410                       # Total read bandwidth from this memory (bytes/s)
system.mem_ctrls.bw_read::total            1259945410                       # Total read bandwidth from this memory (bytes/s)
system.mem_ctrls.bw_total::ruby.dir_cntrl0   1259945410                       # Total bandwidth to/from this memory (bytes/s)
system.mem_ctrls.bw_total::total           1259945410                       # Total bandwidth to/from this memory (bytes/s)
system.mem_ctrls.readReqs                         229                       # Number of read requests accepted
system.mem_ctrls.writeReqs                          0                       # Number of write requests accepted
system.mem_ctrls.readBursts                       458                       # Number of DRAM read bursts, including those serviced by the write queue
system.mem_ctrls.writeBursts                        0                       # Number of DRAM write bursts, including those merged in the write queue
system.mem_ctrls.bytesReadDRAM                  29312                       # Total number of bytes read from DRAM
system.mem_ctrls.bytesReadWrQ                       0                       # Total number of bytes read from write queue
system.mem_ctrls.bytesWritten                       0                       # Total number of bytes written to DRAM
system.mem_ctrls.bytesReadSys                   29312                       # Total read bytes from the system interface side
system.mem_ctrls.bytesWrittenSys                    0                       # Total written bytes from the system interface side
system.mem_ctrls.servicedByWrQ                      0                       # Number of DRAM read bursts serviced by the write queue
system.mem_ctrls.mergedWrBursts                     0                       # Number of DRAM write bursts merged with an existing one
system.mem_ctrls.neitherReadNorWriteReqs            0                       # Number of requests that are neither read nor write
system.mem_ctrls.perBankRdBursts::0                42                       # Per bank write bursts
system.mem_ctrls.perBankRdBursts::1                 2                       # Per bank write bursts
system.mem_ctrls.perBankRdBursts::2                 6                       # Per bank write bursts
system.mem_ctrls.perBankRdBursts::3                10                       # Per bank write bursts
system.mem_ctrls.perBankRdBursts::4                56                       # Per bank write bursts
system.mem_ctrls.perBankRdBursts::5                50                       # Per bank write bursts
system.mem_ctrls.perBankRdBursts::6                16                       # Per bank write bursts
system.mem_ctrls.perBankRdBursts::7                30                       # Per bank write bursts
system.mem_ctrls.perBankRdBursts::8                24                       # Per bank write bursts
system.mem_ctrls.perBankRdBursts::9                84                       # Per bank write bursts
system.mem_ctrls.perBankRdBursts::10               72                       # Per bank write bursts
system.mem_ctrls.perBankRdBursts::11               20                       # Per bank write bursts
system.mem_ctrls.perBankRdBursts::12                2                       # Per bank write bursts
system.mem_ctrls.perBankRdBursts::13               14                       # Per bank write bursts
system.mem_ctrls.perBankRdBursts::14                6                       # Per bank write bursts
system.mem_ctrls.perBankRdBursts::15               24                       # Per bank write bursts
system.mem_ctrls.perBankWrBursts::0                 0                       # Per bank write bursts
system.mem_ctrls.perBankWrBursts::1                 0                       # Per bank write bursts
system.mem_ctrls.perBankWrBursts::2                 0                       # Per bank write bursts
system.mem_ctrls.perBankWrBursts::3                 0                       # Per bank write bursts
system.mem_ctrls.perBankWrBursts::4                 0                       # Per bank write bursts
system.mem_ctrls.perBankWrBursts::5                 0                       # Per bank write bursts
system.mem_ctrls.perBankWrBursts::6                 0                       # Per bank write bursts
system.mem_ctrls.perBankWrBursts::7                 0                       # Per bank write bursts
system.mem_ctrls.perBankWrBursts::8                 0                       # Per bank write bursts
system.mem_ctrls.perBankWrBursts::9                 0                       # Per bank write bursts
system.mem_ctrls.perBankWrBursts::10                0                       # Per bank write bursts
system.mem_ctrls.perBankWrBursts::11                0                       # Per bank write bursts
system.mem_ctrls.perBankWrBursts::12                0                       # Per bank write bursts
system.mem_ctrls.perBankWrBursts::13                0                       # Per bank write bursts
system.mem_ctrls.perBankWrBursts::14                0                       # Per bank write bursts
system.mem_ctrls.perBankWrBursts::15                0                       # Per bank write bursts
system.mem_ctrls.numRdRetry                         0                       # Number of times read queue was full causing retry
system.mem_ctrls.numWrRetry                         0                       # Number of times write queue was full causing retry
system.mem_ctrls.totGap                      23164500                       # Total gap between requests
system.mem_ctrls.readPktSize::0                     0                       # Read request sizes (log2)
system.mem_ctrls.readPktSize::1                     0                       # Read request sizes (log2)
system.mem_ctrls.readPktSize::2                     0                       # Read request sizes (log2)
system.mem_ctrls.readPktSize::3                     0                       # Read request sizes (log2)
system.mem_ctrls.readPktSize::4                     0                       # Read request sizes (log2)
system.mem_ctrls.readPktSize::5                     0                       # Read request sizes (log2)
system.mem_ctrls.readPktSize::6                   458                       # Read request sizes (log2)
system.mem_ctrls.writePktSize::0                    0                       # Write request sizes (log2)
system.mem_ctrls.writePktSize::1                    0                       # Write request sizes (log2)
system.mem_ctrls.writePktSize::2                    0                       # Write request sizes (log2)
system.mem_ctrls.writePktSize::3                    0                       # Write request sizes (log2)
system.mem_ctrls.writePktSize::4                    0                       # Write request sizes (log2)
system.mem_ctrls.writePktSize::5                    0                       # Write request sizes (log2)
system.mem_ctrls.writePktSize::6                    0                       # Write request sizes (log2)
system.mem_ctrls.rdQLenPdf::0                     229                       # What read queue length does an incoming req see
system.mem_ctrls.rdQLenPdf::1                     229                       # What read queue length does an incoming req see
system.mem_ctrls.rdQLenPdf::2                       0                       # What read queue length does an incoming req see
system.mem_ctrls.rdQLenPdf::3                       0                       # What read queue length does an incoming req see
system.mem_ctrls.rdQLenPdf::4                       0                       # What read queue length does an incoming req see
system.mem_ctrls.rdQLenPdf::5                       0                       # What read queue length does an incoming req see
system.mem_ctrls.rdQLenPdf::6                       0                       # What read queue length does an incoming req see
system.mem_ctrls.rdQLenPdf::7                       0                       # What read queue length does an incoming req see
system.mem_ctrls.rdQLenPdf::8                       0                       # What read queue length does an incoming req see
system.mem_ctrls.rdQLenPdf::9                       0                       # What read queue length does an incoming req see
system.mem_ctrls.rdQLenPdf::10                      0                       # What read queue length does an incoming req see
system.mem_ctrls.rdQLenPdf::11                      0                       # What read queue length does an incoming req see
system.mem_ctrls.rdQLenPdf::12                      0                       # What read queue length does an incoming req see
system.mem_ctrls.rdQLenPdf::13                      0                       # What read queue length does an incoming req see
system.mem_ctrls.rdQLenPdf::14                      0                       # What read queue length does an incoming req see
system.mem_ctrls.rdQLenPdf::15                      0                       # What read queue length does an incoming req see
system.mem_ctrls.rdQLenPdf::16                      0                       # What read queue length does an incoming req see
system.mem_ctrls.rdQLenPdf::17                      0                       # What read queue length does an incoming req see
system.mem_ctrls.rdQLenPdf::18                      0                       # What read queue length does an incoming req see
system.mem_ctrls.rdQLenPdf::19                      0                       # What read queue length does an incoming req see
system.mem_ctrls.rdQLenPdf::20                      0                       # What read queue length does an incoming req see
system.mem_ctrls.rdQLenPdf::21                      0                       # What read queue length does an incoming req see
system.mem_ctrls.rdQLenPdf::22                      0                       # What read queue length does an incoming req see
system.mem_ctrls.rdQLenPdf::23                      0                       # What read queue length does an incoming req see
system.mem_ctrls.rdQLenPdf::24                      0                       # What read queue length does an incoming req see
system.mem_ctrls.rdQLenPdf::25                      0                       # What read queue length does an incoming req see
system.mem_ctrls.rdQLenPdf::26                      0                       # What read queue length does an incoming req see
system.mem_ctrls.rdQLenPdf::27                      0                       # What read queue length does an incoming req see
system.mem_ctrls.rdQLenPdf::28                      0                       # What read queue length does an incoming req see
system.mem_ctrls.rdQLenPdf::29                      0                       # What read queue length does an incoming req see
system.mem_ctrls.rdQLenPdf::30                      0                       # What read queue length does an incoming req see
system.mem_ctrls.rdQLenPdf::31                      0                       # What read queue length does an incoming req see
system.mem_ctrls.wrQLenPdf::0                       0                       # What write queue length does an incoming req see
system.mem_ctrls.wrQLenPdf::1                       0                       # What write queue length does an incoming req see
system.mem_ctrls.wrQLenPdf::2                       0                       # What write queue length does an incoming req see
system.mem_ctrls.wrQLenPdf::3                       0                       # What write queue length does an incoming req see
system.mem_ctrls.wrQLenPdf::4                       0                       # What write queue length does an incoming req see
system.mem_ctrls.wrQLenPdf::5                       0                       # What write queue length does an incoming req see
system.mem_ctrls.wrQLenPdf::6                       0                       # What write queue length does an incoming req see
system.mem_ctrls.wrQLenPdf::7                       0                       # What write queue length does an incoming req see
system.mem_ctrls.wrQLenPdf::8                       0                       # What write queue length does an incoming req see
system.mem_ctrls.wrQLenPdf::9                       0                       # What write queue length does an incoming req see
system.mem_ctrls.wrQLenPdf::10                      0                       # What write queue length does an incoming req see
system.mem_ctrls.wrQLenPdf::11                      0                       # What write queue length does an incoming req see
system.mem_ctrls.wrQLenPdf::12                      0                       # What write queue length does an incoming req see
system.mem_ctrls.wrQLenPdf::13                      0                       # What write queue length does an incoming req see
system.mem_ctrls.wrQLenPdf::14                      0                       # What write queue length does an incoming req see
system.mem_ctrls.wrQLenPdf::15                      0                       # What write queue length does an incoming req see
system.mem_ctrls.wrQLenPdf::16                      0                       # What write queue length does an incoming req see
system.mem_ctrls.wrQLenPdf::17                      0                       # What write queue length does an incoming req see
system.mem_ctrls.wrQLenPdf::18                      0                       # What write queue length does an incoming req see
system.mem_ctrls.wrQLenPdf::19                      0                       # What write queue length does an incoming req see
system.mem_ctrls.wrQLenPdf::20                      0                       # What write queue length does an incoming req see
system.mem_ctrls.wrQLenPdf::21                      0                       # What write queue length does an incoming req see
system.mem_ctrls.wrQLenPdf::22                      0                       # What write queue length does an incoming req see
system.mem_ctrls.wrQLenPdf::23                      0                       # What write queue length does an incoming req see
system.mem_ctrls.wrQLenPdf::24                      0                       # What write queue length does an incoming req see
system.mem_ctrls.wrQLenPdf::25                      0                       # What write queue length does an incoming req see
system.mem_ctrls.wrQLenPdf::26                      0                       # What write queue length does an incoming req see
system.mem_ctrls.wrQLenPdf::27                      0                       # What write queue length does an incoming req see
system.mem_ctrls.wrQLenPdf::28                      0                       # What write queue length does an incoming req see
system.mem_ctrls.wrQLenPdf::29                      0                       # What write queue length does an incoming req see
system.mem_ctrls.wrQLenPdf::30                      0                       # What write queue length does an incoming req see
system.mem_ctrls.wrQLenPdf::31                      0                       # What write queue length does an incoming req see
system.mem_ctrls.wrQLenPdf::32                      0                       # What write queue length does an incoming req see
system.mem_ctrls.wrQLenPdf::33                      0                       # What write queue length does an incoming req see
system.mem_ctrls.wrQLenPdf::34                      0                       # What write queue length does an incoming req see
system.mem_ctrls.wrQLenPdf::35                      0                       # What write queue length does an incoming req see
system.mem_ctrls.wrQLenPdf::36                      0                       # What write queue length does an incoming req see
system.mem_ctrls.wrQLenPdf::37                      0                       # What write queue length does an incoming req see
system.mem_ctrls.wrQLenPdf::38                      0                       # What write queue length does an incoming req see
system.mem_ctrls.wrQLenPdf::39                      0                       # What write queue length does an incoming req see
system.mem_ctrls.wrQLenPdf::40                      0                       # What write queue length does an incoming req see
system.mem_ctrls.wrQLenPdf::41                      0                       # What write queue length does an incoming req see
system.mem_ctrls.wrQLenPdf::42                      0                       # What write queue length does an incoming req see
system.mem_ctrls.wrQLenPdf::43                      0                       # What write queue length does an incoming req see
system.mem_ctrls.wrQLenPdf::44                      0                       # What write queue length does an incoming req see
system.mem_ctrls.wrQLenPdf::45                      0                       # What write queue length does an incoming req see
system.mem_ctrls.wrQLenPdf::46                      0                       # What write queue length does an incoming req see
system.mem_ctrls.wrQLenPdf::47                      0                       # What write queue length does an incoming req see
system.mem_ctrls.wrQLenPdf::48                      0                       # What write queue length does an incoming req see
system.mem_ctrls.wrQLenPdf::49                      0                       # What write queue length does an incoming req see
system.mem_ctrls.wrQLenPdf::50                      0                       # What write queue length does an incoming req see
system.mem_ctrls.wrQLenPdf::51                      0                       # What write queue length does an incoming req see
system.mem_ctrls.wrQLenPdf::52                      0                       # What write queue length does an incoming req see
system.mem_ctrls.wrQLenPdf::53                      0                       # What write queue length does an incoming req see
system.mem_ctrls.wrQLenPdf::54                      0                       # What write queue length does an incoming req see
system.mem_ctrls.wrQLenPdf::55                      0                       # What write queue length does an incoming req see
system.mem_ctrls.wrQLenPdf::56                      0                       # What write queue length does an incoming req see
system.mem_ctrls.wrQLenPdf::57                      0                       # What write queue length does an incoming req see
system.mem_ctrls.wrQLenPdf::58                      0                       # What write queue length does an incoming req see
system.mem_ctrls.wrQLenPdf::59                      0                       # What write queue length does an incoming req see
system.mem_ctrls.wrQLenPdf::60                      0                       # What write queue length does an incoming req see
system.mem_ctrls.wrQLenPdf::61                      0                       # What write queue length does an incoming req see
system.mem_ctrls.wrQLenPdf::62                      0                       # What write queue length does an incoming req see
system.mem_ctrls.wrQLenPdf::63                      0                       # What write queue length does an incoming req see
system.mem_ctrls.bytesPerActivate::samples           80                       # Bytes accessed per row activation
system.mem_ctrls.bytesPerActivate::mean    318.400000                       # Bytes accessed per row activation
system.mem_ctrls.bytesPerActivate::gmean   237.679965                       # Bytes accessed per row activation
system.mem_ctrls.bytesPerActivate::stdev   277.006494                       # Bytes accessed per row activation
system.mem_ctrls.bytesPerActivate::128-255           40     50.00%     50.00% # Bytes accessed per row activation
system.mem_ctrls.bytesPerActivate::256-383           15     18.75%     68.75% # Bytes accessed per row activation
system.mem_ctrls.bytesPerActivate::384-511            8     10.00%     78.75% # Bytes accessed per row activation
system.mem_ctrls.bytesPerActivate::512-639            4      5.00%     83.75% # Bytes accessed per row activation
system.mem_ctrls.bytesPerActivate::640-767            3      3.75%     87.50% # Bytes accessed per row activation
system.mem_ctrls.bytesPerActivate::768-895            2      2.50%     90.00% # Bytes accessed per row activation
system.mem_ctrls.bytesPerActivate::896-1023            2      2.50%     92.50% # Bytes accessed per row activation
system.mem_ctrls.bytesPerActivate::1024-1151            6      7.50%    100.00% # Bytes accessed per row activation
system.mem_ctrls.bytesPerActivate::total           80                       # Bytes accessed per row activation
system.mem_ctrls.totQLat                      6122000                       # Total ticks spent queuing
system.mem_ctrls.totMemAccLat                14709500                       # Total ticks spent from burst creation until serviced by the DRAM
system.mem_ctrls.totBusLat                    2290000                       # Total ticks spent in databus transfers
system.mem_ctrls.avgQLat                     13366.81                       # Average queueing delay per DRAM burst
system.mem_ctrls.avgBusLat                    5000.00                       # Average bus latency per DRAM burst
system.mem_ctrls.avgMemAccLat                32116.81                       # Average memory access latency per DRAM burst
system.mem_ctrls.avgRdBW                      1259.95                       # Average DRAM read bandwidth in MiByte/s
system.mem_ctrls.avgWrBW                         0.00                       # Average achieved write bandwidth in MiByte/s
system.mem_ctrls.avgRdBWSys                   1259.95                       # Average system read bandwidth in MiByte/s
system.mem_ctrls.avgWrBWSys                      0.00                       # Average system write bandwidth in MiByte/s
system.mem_ctrls.peakBW                      12800.00                       # Theoretical peak bandwidth in MiByte/s
system.mem_ctrls.busUtil                         9.84                       # Data bus utilization in percentage
system.mem_ctrls.busUtilRead                     9.84                       # Data bus utilization in percentage for reads
system.mem_ctrls.busUtilWrite                    0.00                       # Data bus utilization in percentage for writes
system.mem_ctrls.avgRdQLen                       2.00                       # Average read queue length when enqueuing
system.mem_ctrls.avgWrQLen                       0.00                       # Average write queue length when enqueuing
system.mem_ctrls.readRowHits                      366                       # Number of row buffer hits during reads
system.mem_ctrls.writeRowHits                       0                       # Number of row buffer hits during writes
system.mem_ctrls.readRowHitRate                 79.91                       # Row buffer hit rate for reads
system.mem_ctrls.writeRowHitRate                  nan                       # Row buffer hit rate for writes
system.mem_ctrls.avgGap                     101155.02                       # Average gap between requests
system.mem_ctrls.pageHitRate                    79.91                       # Row buffer hit rate, read and write combined
system.mem_ctrls_0.actEnergy                   128520                       # Energy for activate commands per rank (pJ)
system.mem_ctrls_0.preEnergy                    70125                       # Energy for precharge commands per rank (pJ)
system.mem_ctrls_0.readEnergy                  842400                       # Energy for read commands per rank (pJ)
system.mem_ctrls_0.writeEnergy                      0                       # Energy for write commands per rank (pJ)
system.mem_ctrls_0.refreshEnergy              1017120                       # Energy for refresh commands per rank (pJ)
system.mem_ctrls_0.actBackEnergy             10798650                       # Energy for active background per rank (pJ)
system.mem_ctrls_0.preBackEnergy                27000                       # Energy for precharge background per rank (pJ)
system.mem_ctrls_0.totalEnergy               12883815                       # Total energy per rank (pJ)
system.mem_ctrls_0.averagePower            813.757461                       # Core power per rank (mW)
system.mem_ctrls_0.memoryStateTime::IDLE         3500                       # Time in different power states
system.mem_ctrls_0.memoryStateTime::REF        520000                       # Time in different power states
system.mem_ctrls_0.memoryStateTime::PRE_PDN            0                       # Time in different power states
system.mem_ctrls_0.memoryStateTime::ACT      15322750                       # Time in different power states
system.mem_ctrls_0.memoryStateTime::ACT_PDN            0                       # Time in different power states
system.mem_ctrls_1.actEnergy                   362880                       # Energy for activate commands per rank (pJ)
system.mem_ctrls_1.preEnergy                   198000                       # Energy for precharge commands per rank (pJ)
system.mem_ctrls_1.readEnergy                 1544400                       # Energy for read commands per rank (pJ)
system.mem_ctrls_1.writeEnergy                      0                       # Energy for write commands per rank (pJ)
system.mem_ctrls_1.refreshEnergy              1017120                       # Energy for refresh commands per rank (pJ)
system.mem_ctrls_1.actBackEnergy             10502820                       # Energy for active background per rank (pJ)
system.mem_ctrls_1.preBackEnergy               286500                       # Energy for precharge background per rank (pJ)
system.mem_ctrls_1.totalEnergy               13911720                       # Total energy per rank (pJ)
system.mem_ctrls_1.averagePower            878.681194                       # Core power per rank (mW)
system.mem_ctrls_1.memoryStateTime::IDLE       504250                       # Time in different power states
system.mem_ctrls_1.memoryStateTime::REF        520000                       # Time in different power states
system.mem_ctrls_1.memoryStateTime::PRE_PDN            0                       # Time in different power states
system.mem_ctrls_1.memoryStateTime::ACT      14890750                       # Time in different power states
system.mem_ctrls_1.memoryStateTime::ACT_PDN            0                       # Time in different power states
system.ruby_clk_domain.clock                      500                       # Clock period in ticks
system.ruby.phys_mem.bytes_read::cpu.inst        58360                       # Number of bytes read from this memory
system.ruby.phys_mem.bytes_read::cpu.data         7167                       # Number of bytes read from this memory
system.ruby.phys_mem.bytes_read::total          65527                       # Number of bytes read from this memory
system.ruby.phys_mem.bytes_inst_read::cpu.inst        58360                       # Number of instructions bytes read from this memory
system.ruby.phys_mem.bytes_inst_read::total        58360                       # Number of instructions bytes read from this memory
system.ruby.phys_mem.bytes_written::cpu.data         7160                       # Number of bytes written to this memory
system.ruby.phys_mem.bytes_written::total         7160                       # Number of bytes written to this memory
system.ruby.phys_mem.num_reads::cpu.inst         7295                       # Number of read requests responded to by this memory
system.ruby.phys_mem.num_reads::cpu.data         1077                       # Number of read requests responded to by this memory
system.ruby.phys_mem.num_reads::total            8372                       # Number of read requests responded to by this memory
system.ruby.phys_mem.num_writes::cpu.data          941                       # Number of write requests responded to by this memory
system.ruby.phys_mem.num_writes::total            941                       # Number of write requests responded to by this memory
system.ruby.phys_mem.bw_read::cpu.inst     2508543059                       # Total read bandwidth from this memory (bytes/s)
system.ruby.phys_mem.bw_read::cpu.data      308065937                       # Total read bandwidth from this memory (bytes/s)
system.ruby.phys_mem.bw_read::total        2816608997                       # Total read bandwidth from this memory (bytes/s)
system.ruby.phys_mem.bw_inst_read::cpu.inst   2508543059                       # Instruction read bandwidth from this memory (bytes/s)
system.ruby.phys_mem.bw_inst_read::total   2508543059                       # Instruction read bandwidth from this memory (bytes/s)
system.ruby.phys_mem.bw_write::cpu.data     307765050                       # Write bandwidth from this memory (bytes/s)
system.ruby.phys_mem.bw_write::total        307765050                       # Write bandwidth from this memory (bytes/s)
system.ruby.phys_mem.bw_total::cpu.inst    2508543059                       # Total bandwidth to/from this memory (bytes/s)
system.ruby.phys_mem.bw_total::cpu.data     615830987                       # Total bandwidth to/from this memory (bytes/s)
system.ruby.phys_mem.bw_total::total       3124374046                       # Total bandwidth to/from this memory (bytes/s)
system.cpu_voltage_domain.voltage                   1                       # Voltage in Volts
system.cpu_clk_domain.clock                       500                       # Clock period in ticks
system.cpu.apic_clk_domain.clock                 8000                       # Clock period in ticks
system.cpu.workload.num_syscalls                   11                       # Number of system calls
system.cpu.numCycles                            46529                       # number of cpu cycles simulated
system.cpu.numWorkItemsStarted                      0                       # number of work items this cpu started
system.cpu.numWorkItemsCompleted                    0                       # number of work items this cpu completed
system.cpu.committedInsts                        5723                       # Number of instructions committed
system.cpu.committedOps                         10328                       # Number of ops (including micro ops) committed
system.cpu.num_int_alu_accesses                 10216                       # Number of integer alu accesses
system.cpu.num_fp_alu_accesses                      0                       # Number of float alu accesses
system.cpu.num_func_calls                         221                       # number of times a function call or return occured
system.cpu.num_conditional_control_insts          985                       # number of instructions that are conditional controls
system.cpu.num_int_insts                        10216                       # number of integer instructions
system.cpu.num_fp_insts                             0                       # number of float instructions
system.cpu.num_int_register_reads               19307                       # number of times the integer registers were read
system.cpu.num_int_register_writes               7990                       # number of times the integer registers were written
system.cpu.num_fp_register_reads                    0                       # number of times the floating registers were read
system.cpu.num_fp_register_writes                   0                       # number of times the floating registers were written
system.cpu.num_cc_register_reads                 7021                       # number of times the CC registers were read
system.cpu.num_cc_register_writes                3846                       # number of times the CC registers were written
system.cpu.num_mem_refs                          2018                       # number of memory refs
system.cpu.num_load_insts                        1077                       # Number of load instructions
system.cpu.num_store_insts                        941                       # Number of store instructions
system.cpu.num_idle_cycles                   0.002000                       # Number of idle cycles
system.cpu.num_busy_cycles               46528.998000                       # Number of busy cycles
system.cpu.not_idle_fraction                 1.000000                       # Percentage of non-idle cycles
system.cpu.idle_fraction                     0.000000                       # Percentage of idle cycles
system.cpu.Branches                              1305                       # Number of branches fetched
system.cpu.op_class::No_OpClass                     1      0.01%      0.01% # Class of executed instruction
system.cpu.op_class::IntAlu                      8295     80.32%     80.33% # Class of executed instruction
system.cpu.op_class::IntMult                        7      0.07%     80.39% # Class of executed instruction
system.cpu.op_class::IntDiv                         7      0.07%     80.46% # Class of executed instruction
system.cpu.op_class::FloatAdd                       0      0.00%     80.46% # Class of executed instruction
system.cpu.op_class::FloatCmp                       0      0.00%     80.46% # Class of executed instruction
system.cpu.op_class::FloatCvt                       0      0.00%     80.46% # Class of executed instruction
system.cpu.op_class::FloatMult                      0      0.00%     80.46% # Class of executed instruction
system.cpu.op_class::FloatDiv                       0      0.00%     80.46% # Class of executed instruction
system.cpu.op_class::FloatSqrt                      0      0.00%     80.46% # Class of executed instruction
system.cpu.op_class::SimdAdd                        0      0.00%     80.46% # Class of executed instruction
system.cpu.op_class::SimdAddAcc                     0      0.00%     80.46% # Class of executed instruction
system.cpu.op_class::SimdAlu                        0      0.00%     80.46% # Class of executed instruction
system.cpu.op_class::SimdCmp                        0      0.00%     80.46% # Class of executed instruction
system.cpu.op_class::SimdCvt                        0      0.00%     80.46% # Class of executed instruction
system.cpu.op_class::SimdMisc                       0      0.00%     80.46% # Class of executed instruction
system.cpu.op_class::SimdMult                       0      0.00%     80.46% # Class of executed instruction
system.cpu.op_class::SimdMultAcc                    0      0.00%     80.46% # Class of executed instruction
system.cpu.op_class::SimdShift                      0      0.00%     80.46% # Class of executed instruction
system.cpu.op_class::SimdShiftAcc                   0      0.00%     80.46% # Class of executed instruction
system.cpu.op_class::SimdSqrt                       0      0.00%     80.46% # Class of executed instruction
system.cpu.op_class::SimdFloatAdd                   0      0.00%     80.46% # Class of executed instruction
system.cpu.op_class::SimdFloatAlu                   0      0.00%     80.46% # Class of executed instruction
system.cpu.op_class::SimdFloatCmp                   0      0.00%     80.46% # Class of executed instruction
system.cpu.op_class::SimdFloatCvt                   0      0.00%     80.46% # Class of executed instruction
system.cpu.op_class::SimdFloatDiv                   0      0.00%     80.46% # Class of executed instruction
system.cpu.op_class::SimdFloatMisc                  0      0.00%     80.46% # Class of executed instruction
system.cpu.op_class::SimdFloatMult                  0      0.00%     80.46% # Class of executed instruction
system.cpu.op_class::SimdFloatMultAcc               0      0.00%     80.46% # Class of executed instruction
system.cpu.op_class::SimdFloatSqrt                  0      0.00%     80.46% # Class of executed instruction
system.cpu.op_class::MemRead                     1077     10.43%     90.89% # Class of executed instruction
system.cpu.op_class::MemWrite                     941      9.11%    100.00% # Class of executed instruction
system.cpu.op_class::IprAccess                      0      0.00%    100.00% # Class of executed instruction
system.cpu.op_class::InstPrefetch                   0      0.00%    100.00% # Class of executed instruction
system.cpu.op_class::total                      10328                       # Class of executed instruction
system.gpu.clk_domain.voltage_domain.voltage            1                       # Voltage in Volts
system.gpu.clk_domain.clock                      1429                       # Clock period in ticks
system.gpu.dram_wrapper.clk_domain.clock          541                       # Clock period in ticks
system.gpu.icnt_wrapper.clk_domain.clock         2858                       # Clock period in ticks
system.ruby.outstanding_req_hist::bucket_size            1                      
system.ruby.outstanding_req_hist::max_bucket            9                      
system.ruby.outstanding_req_hist::samples         9313                      
system.ruby.outstanding_req_hist::mean              1                      
system.ruby.outstanding_req_hist::gmean             1                      
system.ruby.outstanding_req_hist         |           0      0.00%      0.00% |        9313    100.00%    100.00% |           0      0.00%    100.00% |           0      0.00%    100.00% |           0      0.00%    100.00% |           0      0.00%    100.00% |           0      0.00%    100.00% |           0      0.00%    100.00% |           0      0.00%    100.00% |           0      0.00%    100.00%
system.ruby.outstanding_req_hist::total          9313                      
system.ruby.latency_hist::bucket_size             128                      
system.ruby.latency_hist::max_bucket             1279                      
system.ruby.latency_hist::samples                9313                      
system.ruby.latency_hist::mean               3.996134                      
system.ruby.latency_hist::gmean              1.125444                      
system.ruby.latency_hist::stdev             20.565230                      
system.ruby.latency_hist                 |        9221     99.01%     99.01% |          90      0.97%     99.98% |           0      0.00%     99.98% |           0      0.00%     99.98% |           1      0.01%     99.99% |           1      0.01%    100.00% |           0      0.00%    100.00% |           0      0.00%    100.00% |           0      0.00%    100.00% |           0      0.00%    100.00%
system.ruby.latency_hist::total                  9313                      
system.ruby.hit_latency_hist::bucket_size            2                      
system.ruby.hit_latency_hist::max_bucket           19                      
system.ruby.hit_latency_hist::samples            9084                      
system.ruby.hit_latency_hist::mean           1.004954                      
system.ruby.hit_latency_hist::gmean          1.000916                      
system.ruby.hit_latency_hist::stdev          0.272562                      
system.ruby.hit_latency_hist             |        9081     99.97%     99.97% |           0      0.00%     99.97% |           0      0.00%     99.97% |           0      0.00%     99.97% |           0      0.00%     99.97% |           0      0.00%     99.97% |           0      0.00%     99.97% |           0      0.00%     99.97% |           3      0.03%    100.00% |           0      0.00%    100.00%
system.ruby.hit_latency_hist::total              9084                      
system.ruby.miss_latency_hist::bucket_size          128                      
system.ruby.miss_latency_hist::max_bucket         1279                      
system.ruby.miss_latency_hist::samples            229                      
system.ruby.miss_latency_hist::mean        122.650655                      
system.ruby.miss_latency_hist::gmean       117.889595                      
system.ruby.miss_latency_hist::stdev        52.661367                      
system.ruby.miss_latency_hist            |         137     59.83%     59.83% |          90     39.30%     99.13% |           0      0.00%     99.13% |           0      0.00%     99.13% |           1      0.44%     99.56% |           1      0.44%    100.00% |           0      0.00%    100.00% |           0      0.00%    100.00% |           0      0.00%    100.00% |           0      0.00%    100.00%
system.ruby.miss_latency_hist::total              229                      
system.gpu.shader_mmu.numPagefaults                 0                       # Number of Pagefaults
system.gpu.shader_mmu.numPagewalks                  0                       # Number of Pagewalks
system.gpu.shader_mmu.totalRequests                 0                       # Total number of requests
system.gpu.shader_mmu.l2hits                        0                       # Hits in the shared L2
system.gpu.shader_mmu.prefetchHits                  0                       # Number of prefetch hits
system.gpu.shader_mmu.numPrefetches                 0                       # Number of prefetchs
system.gpu.shader_mmu.prefetchFaults                0                       # Number of faults caused by prefetches
system.gpu.shader_mmu.pagefaultLatency::samples            0                       # Latency to complete the pagefault
system.gpu.shader_mmu.pagefaultLatency::mean          nan                       # Latency to complete the pagefault
system.gpu.shader_mmu.pagefaultLatency::gmean          nan                       # Latency to complete the pagefault
system.gpu.shader_mmu.pagefaultLatency::stdev          nan                       # Latency to complete the pagefault
system.gpu.shader_mmu.pagefaultLatency::0            0                       # Latency to complete the pagefault
system.gpu.shader_mmu.pagefaultLatency::1            0                       # Latency to complete the pagefault
system.gpu.shader_mmu.pagefaultLatency::2            0                       # Latency to complete the pagefault
system.gpu.shader_mmu.pagefaultLatency::3            0                       # Latency to complete the pagefault
system.gpu.shader_mmu.pagefaultLatency::4            0                       # Latency to complete the pagefault
system.gpu.shader_mmu.pagefaultLatency::5            0                       # Latency to complete the pagefault
system.gpu.shader_mmu.pagefaultLatency::6            0                       # Latency to complete the pagefault
system.gpu.shader_mmu.pagefaultLatency::7            0                       # Latency to complete the pagefault
system.gpu.shader_mmu.pagefaultLatency::8            0                       # Latency to complete the pagefault
system.gpu.shader_mmu.pagefaultLatency::9            0                       # Latency to complete the pagefault
system.gpu.shader_mmu.pagefaultLatency::10            0                       # Latency to complete the pagefault
system.gpu.shader_mmu.pagefaultLatency::11            0                       # Latency to complete the pagefault
system.gpu.shader_mmu.pagefaultLatency::12            0                       # Latency to complete the pagefault
system.gpu.shader_mmu.pagefaultLatency::13            0                       # Latency to complete the pagefault
system.gpu.shader_mmu.pagefaultLatency::14            0                       # Latency to complete the pagefault
system.gpu.shader_mmu.pagefaultLatency::15            0                       # Latency to complete the pagefault
system.gpu.shader_mmu.pagefaultLatency::16            0                       # Latency to complete the pagefault
system.gpu.shader_mmu.pagefaultLatency::17            0                       # Latency to complete the pagefault
system.gpu.shader_mmu.pagefaultLatency::18            0                       # Latency to complete the pagefault
system.gpu.shader_mmu.pagefaultLatency::19            0                       # Latency to complete the pagefault
system.gpu.shader_mmu.pagefaultLatency::20            0                       # Latency to complete the pagefault
system.gpu.shader_mmu.pagefaultLatency::21            0                       # Latency to complete the pagefault
system.gpu.shader_mmu.pagefaultLatency::22            0                       # Latency to complete the pagefault
system.gpu.shader_mmu.pagefaultLatency::23            0                       # Latency to complete the pagefault
system.gpu.shader_mmu.pagefaultLatency::24            0                       # Latency to complete the pagefault
system.gpu.shader_mmu.pagefaultLatency::25            0                       # Latency to complete the pagefault
system.gpu.shader_mmu.pagefaultLatency::26            0                       # Latency to complete the pagefault
system.gpu.shader_mmu.pagefaultLatency::27            0                       # Latency to complete the pagefault
system.gpu.shader_mmu.pagefaultLatency::28            0                       # Latency to complete the pagefault
system.gpu.shader_mmu.pagefaultLatency::29            0                       # Latency to complete the pagefault
system.gpu.shader_mmu.pagefaultLatency::30            0                       # Latency to complete the pagefault
system.gpu.shader_mmu.pagefaultLatency::31            0                       # Latency to complete the pagefault
system.gpu.shader_mmu.pagefaultLatency::total            0                       # Latency to complete the pagefault
system.gpu.shader_mmu.concurrentWalks::samples            0                       # Number of outstanding walks
system.gpu.shader_mmu.concurrentWalks::mean          nan                       # Number of outstanding walks
system.gpu.shader_mmu.concurrentWalks::gmean          nan                       # Number of outstanding walks
system.gpu.shader_mmu.concurrentWalks::stdev          nan                       # Number of outstanding walks
system.gpu.shader_mmu.concurrentWalks::0            0                       # Number of outstanding walks
system.gpu.shader_mmu.concurrentWalks::1            0                       # Number of outstanding walks
system.gpu.shader_mmu.concurrentWalks::2            0                       # Number of outstanding walks
system.gpu.shader_mmu.concurrentWalks::3            0                       # Number of outstanding walks
system.gpu.shader_mmu.concurrentWalks::4            0                       # Number of outstanding walks
system.gpu.shader_mmu.concurrentWalks::5            0                       # Number of outstanding walks
system.gpu.shader_mmu.concurrentWalks::6            0                       # Number of outstanding walks
system.gpu.shader_mmu.concurrentWalks::7            0                       # Number of outstanding walks
system.gpu.shader_mmu.concurrentWalks::8            0                       # Number of outstanding walks
system.gpu.shader_mmu.concurrentWalks::9            0                       # Number of outstanding walks
system.gpu.shader_mmu.concurrentWalks::10            0                       # Number of outstanding walks
system.gpu.shader_mmu.concurrentWalks::11            0                       # Number of outstanding walks
system.gpu.shader_mmu.concurrentWalks::12            0                       # Number of outstanding walks
system.gpu.shader_mmu.concurrentWalks::13            0                       # Number of outstanding walks
system.gpu.shader_mmu.concurrentWalks::14            0                       # Number of outstanding walks
system.gpu.shader_mmu.concurrentWalks::15            0                       # Number of outstanding walks
system.gpu.shader_mmu.concurrentWalks::total            0                       # Number of outstanding walks
system.gpu.shader_mmu.pagewalkLatency::samples            0                       # Latency to complete the pagewalk
system.gpu.shader_mmu.pagewalkLatency::mean          nan                       # Latency to complete the pagewalk
system.gpu.shader_mmu.pagewalkLatency::gmean          nan                       # Latency to complete the pagewalk
system.gpu.shader_mmu.pagewalkLatency::stdev          nan                       # Latency to complete the pagewalk
system.gpu.shader_mmu.pagewalkLatency::0            0                       # Latency to complete the pagewalk
system.gpu.shader_mmu.pagewalkLatency::1            0                       # Latency to complete the pagewalk
system.gpu.shader_mmu.pagewalkLatency::2            0                       # Latency to complete the pagewalk
system.gpu.shader_mmu.pagewalkLatency::3            0                       # Latency to complete the pagewalk
system.gpu.shader_mmu.pagewalkLatency::4            0                       # Latency to complete the pagewalk
system.gpu.shader_mmu.pagewalkLatency::5            0                       # Latency to complete the pagewalk
system.gpu.shader_mmu.pagewalkLatency::6            0                       # Latency to complete the pagewalk
system.gpu.shader_mmu.pagewalkLatency::7            0                       # Latency to complete the pagewalk
system.gpu.shader_mmu.pagewalkLatency::8            0                       # Latency to complete the pagewalk
system.gpu.shader_mmu.pagewalkLatency::9            0                       # Latency to complete the pagewalk
system.gpu.shader_mmu.pagewalkLatency::10            0                       # Latency to complete the pagewalk
system.gpu.shader_mmu.pagewalkLatency::11            0                       # Latency to complete the pagewalk
system.gpu.shader_mmu.pagewalkLatency::12            0                       # Latency to complete the pagewalk
system.gpu.shader_mmu.pagewalkLatency::13            0                       # Latency to complete the pagewalk
system.gpu.shader_mmu.pagewalkLatency::14            0                       # Latency to complete the pagewalk
system.gpu.shader_mmu.pagewalkLatency::15            0                       # Latency to complete the pagewalk
system.gpu.shader_mmu.pagewalkLatency::16            0                       # Latency to complete the pagewalk
system.gpu.shader_mmu.pagewalkLatency::17            0                       # Latency to complete the pagewalk
system.gpu.shader_mmu.pagewalkLatency::18            0                       # Latency to complete the pagewalk
system.gpu.shader_mmu.pagewalkLatency::19            0                       # Latency to complete the pagewalk
system.gpu.shader_mmu.pagewalkLatency::20            0                       # Latency to complete the pagewalk
system.gpu.shader_mmu.pagewalkLatency::21            0                       # Latency to complete the pagewalk
system.gpu.shader_mmu.pagewalkLatency::22            0                       # Latency to complete the pagewalk
system.gpu.shader_mmu.pagewalkLatency::23            0                       # Latency to complete the pagewalk
system.gpu.shader_mmu.pagewalkLatency::24            0                       # Latency to complete the pagewalk
system.gpu.shader_mmu.pagewalkLatency::25            0                       # Latency to complete the pagewalk
system.gpu.shader_mmu.pagewalkLatency::26            0                       # Latency to complete the pagewalk
system.gpu.shader_mmu.pagewalkLatency::27            0                       # Latency to complete the pagewalk
system.gpu.shader_mmu.pagewalkLatency::28            0                       # Latency to complete the pagewalk
system.gpu.shader_mmu.pagewalkLatency::29            0                       # Latency to complete the pagewalk
system.gpu.shader_mmu.pagewalkLatency::30            0                       # Latency to complete the pagewalk
system.gpu.shader_mmu.pagewalkLatency::31            0                       # Latency to complete the pagewalk
system.gpu.shader_mmu.pagewalkLatency::total            0                       # Latency to complete the pagewalk
system.gpu.kernels_started                          0                       # Number of kernels started
system.gpu.kernels_completed                        0                       # Number of kernels completed
system.gpu.ce.device_dtb.hits                       0                       # Number of hits in this TLB
system.gpu.ce.device_dtb.misses                     0                       # Number of misses in this TLB
system.gpu.ce.device_dtb.hitRate                  nan                       # Hit rate for this TLB
system.gpu.ce.host_dtb.hits                         0                       # Number of hits in this TLB
system.gpu.ce.host_dtb.misses                       0                       # Number of misses in this TLB
system.gpu.ce.host_dtb.hitRate                    nan                       # Hit rate for this TLB
system.gpu.ce.numOperations                         0                       # Number of copy/memset operations
system.gpu.ce.opBytesRead                           0                       # Number of copy bytes read
system.gpu.ce.opBytesWritten                        0                       # Number of copy/memset bytes written
system.gpu.ce.opTimeTicks                           0                       # Total time spent in copy/memset operations
system.gpu.shader_cores00.itb.hits                  0                       # Number of hits in this TLB
system.gpu.shader_cores00.itb.misses                0                       # Number of misses in this TLB
system.gpu.shader_cores00.itb.hitRate             nan                       # Hit rate for this TLB
system.gpu.shader_cores00.local_loads               0                       # Number of loads from local space
system.gpu.shader_cores00.local_stores              0                       # Number of stores to local space
system.gpu.shader_cores00.shared_loads              0                       # Number of loads from shared space
system.gpu.shader_cores00.shared_stores             0                       # Number of stores to shared space
system.gpu.shader_cores00.param_kernel_loads            0                       # Number of loads from kernel parameter space
system.gpu.shader_cores00.param_local_loads            0                       # Number of loads from local parameter space
system.gpu.shader_cores00.param_local_stores            0                       # Number of stores to local parameter space
system.gpu.shader_cores00.const_loads               0                       # Number of loads from constant space
system.gpu.shader_cores00.tex_loads                 0                       # Number of loads from texture space
system.gpu.shader_cores00.global_loads              0                       # Number of loads from global space
system.gpu.shader_cores00.global_stores             0                       # Number of stores to global space
system.gpu.shader_cores00.surf_loads                0                       # Number of loads from surface space
system.gpu.shader_cores00.generic_loads             0                       # Number of loads from generic spaces (global, shared, local)
system.gpu.shader_cores00.generic_stores            0                       # Number of stores to generic spaces (global, shared, local)
system.gpu.shader_cores00.inst_cache_requests            0                       # Number of instruction cache requests sent
system.gpu.shader_cores00.inst_cache_retries            0                       # Number of instruction cache retries
system.gpu.shader_cores00.inst_counts::0            0                       # Inst counts: 1: ALU, 2: MAD, 3: CTRL, 4: SFU, 5: MEM, 6: TEX, 7: NOP
system.gpu.shader_cores00.inst_counts::1            0                       # Inst counts: 1: ALU, 2: MAD, 3: CTRL, 4: SFU, 5: MEM, 6: TEX, 7: NOP
system.gpu.shader_cores00.inst_counts::2            0                       # Inst counts: 1: ALU, 2: MAD, 3: CTRL, 4: SFU, 5: MEM, 6: TEX, 7: NOP
system.gpu.shader_cores00.inst_counts::3            0                       # Inst counts: 1: ALU, 2: MAD, 3: CTRL, 4: SFU, 5: MEM, 6: TEX, 7: NOP
system.gpu.shader_cores00.inst_counts::4            0                       # Inst counts: 1: ALU, 2: MAD, 3: CTRL, 4: SFU, 5: MEM, 6: TEX, 7: NOP
system.gpu.shader_cores00.inst_counts::5            0                       # Inst counts: 1: ALU, 2: MAD, 3: CTRL, 4: SFU, 5: MEM, 6: TEX, 7: NOP
system.gpu.shader_cores00.inst_counts::6            0                       # Inst counts: 1: ALU, 2: MAD, 3: CTRL, 4: SFU, 5: MEM, 6: TEX, 7: NOP
system.gpu.shader_cores00.inst_counts::7            0                       # Inst counts: 1: ALU, 2: MAD, 3: CTRL, 4: SFU, 5: MEM, 6: TEX, 7: NOP
system.gpu.shader_cores00.activeCycles              0                       # Number of cycles this shader was executing a CTA
system.gpu.shader_cores00.notStalledCycles            0                       # Number of cycles this shader was actually executing at least one instance
system.gpu.shader_cores00.instInstances             0                       # Total instructions executed by all PEs in the core
system.gpu.shader_cores00.instPerCycle            nan                       # Instruction instances per cycle
system.gpu.shader_cores00.kernels_completed            0                       # Number of kernels completed
system.gpu.shader_cores00.lsq.data_tlb.hits            0                       # Number of hits in this TLB
system.gpu.shader_cores00.lsq.data_tlb.misses            0                       # Number of misses in this TLB
system.gpu.shader_cores00.lsq.data_tlb.hitRate          nan                       # Hit rate for this TLB
system.gpu.shader_cores00.lsq.warpInstBufActive::samples            0                       # Histogram of number of active warp inst buffers at a given time
system.gpu.shader_cores00.lsq.warpInstBufActive::mean          nan                       # Histogram of number of active warp inst buffers at a given time
system.gpu.shader_cores00.lsq.warpInstBufActive::gmean          nan                       # Histogram of number of active warp inst buffers at a given time
system.gpu.shader_cores00.lsq.warpInstBufActive::stdev          nan                       # Histogram of number of active warp inst buffers at a given time
system.gpu.shader_cores00.lsq.warpInstBufActive::0            0                       # Histogram of number of active warp inst buffers at a given time
system.gpu.shader_cores00.lsq.warpInstBufActive::1            0                       # Histogram of number of active warp inst buffers at a given time
system.gpu.shader_cores00.lsq.warpInstBufActive::2            0                       # Histogram of number of active warp inst buffers at a given time
system.gpu.shader_cores00.lsq.warpInstBufActive::3            0                       # Histogram of number of active warp inst buffers at a given time
system.gpu.shader_cores00.lsq.warpInstBufActive::4            0                       # Histogram of number of active warp inst buffers at a given time
system.gpu.shader_cores00.lsq.warpInstBufActive::5            0                       # Histogram of number of active warp inst buffers at a given time
system.gpu.shader_cores00.lsq.warpInstBufActive::6            0                       # Histogram of number of active warp inst buffers at a given time
system.gpu.shader_cores00.lsq.warpInstBufActive::7            0                       # Histogram of number of active warp inst buffers at a given time
system.gpu.shader_cores00.lsq.warpInstBufActive::8            0                       # Histogram of number of active warp inst buffers at a given time
system.gpu.shader_cores00.lsq.warpInstBufActive::9            0                       # Histogram of number of active warp inst buffers at a given time
system.gpu.shader_cores00.lsq.warpInstBufActive::10            0                       # Histogram of number of active warp inst buffers at a given time
system.gpu.shader_cores00.lsq.warpInstBufActive::11            0                       # Histogram of number of active warp inst buffers at a given time
system.gpu.shader_cores00.lsq.warpInstBufActive::12            0                       # Histogram of number of active warp inst buffers at a given time
system.gpu.shader_cores00.lsq.warpInstBufActive::13            0                       # Histogram of number of active warp inst buffers at a given time
system.gpu.shader_cores00.lsq.warpInstBufActive::14            0                       # Histogram of number of active warp inst buffers at a given time
system.gpu.shader_cores00.lsq.warpInstBufActive::15            0                       # Histogram of number of active warp inst buffers at a given time
system.gpu.shader_cores00.lsq.warpInstBufActive::16            0                       # Histogram of number of active warp inst buffers at a given time
system.gpu.shader_cores00.lsq.warpInstBufActive::17            0                       # Histogram of number of active warp inst buffers at a given time
system.gpu.shader_cores00.lsq.warpInstBufActive::18            0                       # Histogram of number of active warp inst buffers at a given time
system.gpu.shader_cores00.lsq.warpInstBufActive::19            0                       # Histogram of number of active warp inst buffers at a given time
system.gpu.shader_cores00.lsq.warpInstBufActive::20            0                       # Histogram of number of active warp inst buffers at a given time
system.gpu.shader_cores00.lsq.warpInstBufActive::21            0                       # Histogram of number of active warp inst buffers at a given time
system.gpu.shader_cores00.lsq.warpInstBufActive::22            0                       # Histogram of number of active warp inst buffers at a given time
system.gpu.shader_cores00.lsq.warpInstBufActive::23            0                       # Histogram of number of active warp inst buffers at a given time
system.gpu.shader_cores00.lsq.warpInstBufActive::24            0                       # Histogram of number of active warp inst buffers at a given time
system.gpu.shader_cores00.lsq.warpInstBufActive::25            0                       # Histogram of number of active warp inst buffers at a given time
system.gpu.shader_cores00.lsq.warpInstBufActive::26            0                       # Histogram of number of active warp inst buffers at a given time
system.gpu.shader_cores00.lsq.warpInstBufActive::27            0                       # Histogram of number of active warp inst buffers at a given time
system.gpu.shader_cores00.lsq.warpInstBufActive::28            0                       # Histogram of number of active warp inst buffers at a given time
system.gpu.shader_cores00.lsq.warpInstBufActive::29            0                       # Histogram of number of active warp inst buffers at a given time
system.gpu.shader_cores00.lsq.warpInstBufActive::30            0                       # Histogram of number of active warp inst buffers at a given time
system.gpu.shader_cores00.lsq.warpInstBufActive::31            0                       # Histogram of number of active warp inst buffers at a given time
system.gpu.shader_cores00.lsq.warpInstBufActive::32            0                       # Histogram of number of active warp inst buffers at a given time
system.gpu.shader_cores00.lsq.warpInstBufActive::33            0                       # Histogram of number of active warp inst buffers at a given time
system.gpu.shader_cores00.lsq.warpInstBufActive::34            0                       # Histogram of number of active warp inst buffers at a given time
system.gpu.shader_cores00.lsq.warpInstBufActive::35            0                       # Histogram of number of active warp inst buffers at a given time
system.gpu.shader_cores00.lsq.warpInstBufActive::36            0                       # Histogram of number of active warp inst buffers at a given time
system.gpu.shader_cores00.lsq.warpInstBufActive::37            0                       # Histogram of number of active warp inst buffers at a given time
system.gpu.shader_cores00.lsq.warpInstBufActive::38            0                       # Histogram of number of active warp inst buffers at a given time
system.gpu.shader_cores00.lsq.warpInstBufActive::39            0                       # Histogram of number of active warp inst buffers at a given time
system.gpu.shader_cores00.lsq.warpInstBufActive::40            0                       # Histogram of number of active warp inst buffers at a given time
system.gpu.shader_cores00.lsq.warpInstBufActive::41            0                       # Histogram of number of active warp inst buffers at a given time
system.gpu.shader_cores00.lsq.warpInstBufActive::42            0                       # Histogram of number of active warp inst buffers at a given time
system.gpu.shader_cores00.lsq.warpInstBufActive::43            0                       # Histogram of number of active warp inst buffers at a given time
system.gpu.shader_cores00.lsq.warpInstBufActive::44            0                       # Histogram of number of active warp inst buffers at a given time
system.gpu.shader_cores00.lsq.warpInstBufActive::45            0                       # Histogram of number of active warp inst buffers at a given time
system.gpu.shader_cores00.lsq.warpInstBufActive::46            0                       # Histogram of number of active warp inst buffers at a given time
system.gpu.shader_cores00.lsq.warpInstBufActive::47            0                       # Histogram of number of active warp inst buffers at a given time
system.gpu.shader_cores00.lsq.warpInstBufActive::48            0                       # Histogram of number of active warp inst buffers at a given time
system.gpu.shader_cores00.lsq.warpInstBufActive::49            0                       # Histogram of number of active warp inst buffers at a given time
system.gpu.shader_cores00.lsq.warpInstBufActive::50            0                       # Histogram of number of active warp inst buffers at a given time
system.gpu.shader_cores00.lsq.warpInstBufActive::51            0                       # Histogram of number of active warp inst buffers at a given time
system.gpu.shader_cores00.lsq.warpInstBufActive::52            0                       # Histogram of number of active warp inst buffers at a given time
system.gpu.shader_cores00.lsq.warpInstBufActive::53            0                       # Histogram of number of active warp inst buffers at a given time
system.gpu.shader_cores00.lsq.warpInstBufActive::54            0                       # Histogram of number of active warp inst buffers at a given time
system.gpu.shader_cores00.lsq.warpInstBufActive::55            0                       # Histogram of number of active warp inst buffers at a given time
system.gpu.shader_cores00.lsq.warpInstBufActive::56            0                       # Histogram of number of active warp inst buffers at a given time
system.gpu.shader_cores00.lsq.warpInstBufActive::57            0                       # Histogram of number of active warp inst buffers at a given time
system.gpu.shader_cores00.lsq.warpInstBufActive::58            0                       # Histogram of number of active warp inst buffers at a given time
system.gpu.shader_cores00.lsq.warpInstBufActive::59            0                       # Histogram of number of active warp inst buffers at a given time
system.gpu.shader_cores00.lsq.warpInstBufActive::60            0                       # Histogram of number of active warp inst buffers at a given time
system.gpu.shader_cores00.lsq.warpInstBufActive::61            0                       # Histogram of number of active warp inst buffers at a given time
system.gpu.shader_cores00.lsq.warpInstBufActive::62            0                       # Histogram of number of active warp inst buffers at a given time
system.gpu.shader_cores00.lsq.warpInstBufActive::63            0                       # Histogram of number of active warp inst buffers at a given time
system.gpu.shader_cores00.lsq.warpInstBufActive::64            0                       # Histogram of number of active warp inst buffers at a given time
system.gpu.shader_cores00.lsq.warpInstBufActive::total            0                       # Histogram of number of active warp inst buffers at a given time
system.gpu.shader_cores00.lsq.cacheAccesses            0                       # Average number of concurrent outstanding cache accesses
system.gpu.shader_cores00.lsq.writebackBlockedCycles            0                       # Number of cycles blocked for core writeback stage
system.gpu.shader_cores00.lsq.mshrHitQueued            0                       # Number of hits on blocked lines in MSHRs
system.gpu.shader_cores00.lsq.mshrsFullCycles            0                       # Number of cycles stalled waiting for an MSHR
system.gpu.shader_cores00.lsq.mshrsFullCount            0                       # Number of times MSHRs filled
system.gpu.shader_cores00.lsq.warpCoalescedAccesses::samples            0                       # Number of coalesced accesses per warp instruction
system.gpu.shader_cores00.lsq.warpCoalescedAccesses::mean          nan                       # Number of coalesced accesses per warp instruction
system.gpu.shader_cores00.lsq.warpCoalescedAccesses::gmean          nan                       # Number of coalesced accesses per warp instruction
system.gpu.shader_cores00.lsq.warpCoalescedAccesses::stdev          nan                       # Number of coalesced accesses per warp instruction
system.gpu.shader_cores00.lsq.warpCoalescedAccesses::0            0                       # Number of coalesced accesses per warp instruction
system.gpu.shader_cores00.lsq.warpCoalescedAccesses::1            0                       # Number of coalesced accesses per warp instruction
system.gpu.shader_cores00.lsq.warpCoalescedAccesses::2            0                       # Number of coalesced accesses per warp instruction
system.gpu.shader_cores00.lsq.warpCoalescedAccesses::3            0                       # Number of coalesced accesses per warp instruction
system.gpu.shader_cores00.lsq.warpCoalescedAccesses::4            0                       # Number of coalesced accesses per warp instruction
system.gpu.shader_cores00.lsq.warpCoalescedAccesses::5            0                       # Number of coalesced accesses per warp instruction
system.gpu.shader_cores00.lsq.warpCoalescedAccesses::6            0                       # Number of coalesced accesses per warp instruction
system.gpu.shader_cores00.lsq.warpCoalescedAccesses::7            0                       # Number of coalesced accesses per warp instruction
system.gpu.shader_cores00.lsq.warpCoalescedAccesses::8            0                       # Number of coalesced accesses per warp instruction
system.gpu.shader_cores00.lsq.warpCoalescedAccesses::9            0                       # Number of coalesced accesses per warp instruction
system.gpu.shader_cores00.lsq.warpCoalescedAccesses::10            0                       # Number of coalesced accesses per warp instruction
system.gpu.shader_cores00.lsq.warpCoalescedAccesses::11            0                       # Number of coalesced accesses per warp instruction
system.gpu.shader_cores00.lsq.warpCoalescedAccesses::12            0                       # Number of coalesced accesses per warp instruction
system.gpu.shader_cores00.lsq.warpCoalescedAccesses::13            0                       # Number of coalesced accesses per warp instruction
system.gpu.shader_cores00.lsq.warpCoalescedAccesses::14            0                       # Number of coalesced accesses per warp instruction
system.gpu.shader_cores00.lsq.warpCoalescedAccesses::15            0                       # Number of coalesced accesses per warp instruction
system.gpu.shader_cores00.lsq.warpCoalescedAccesses::16            0                       # Number of coalesced accesses per warp instruction
system.gpu.shader_cores00.lsq.warpCoalescedAccesses::17            0                       # Number of coalesced accesses per warp instruction
system.gpu.shader_cores00.lsq.warpCoalescedAccesses::18            0                       # Number of coalesced accesses per warp instruction
system.gpu.shader_cores00.lsq.warpCoalescedAccesses::19            0                       # Number of coalesced accesses per warp instruction
system.gpu.shader_cores00.lsq.warpCoalescedAccesses::20            0                       # Number of coalesced accesses per warp instruction
system.gpu.shader_cores00.lsq.warpCoalescedAccesses::21            0                       # Number of coalesced accesses per warp instruction
system.gpu.shader_cores00.lsq.warpCoalescedAccesses::22            0                       # Number of coalesced accesses per warp instruction
system.gpu.shader_cores00.lsq.warpCoalescedAccesses::23            0                       # Number of coalesced accesses per warp instruction
system.gpu.shader_cores00.lsq.warpCoalescedAccesses::24            0                       # Number of coalesced accesses per warp instruction
system.gpu.shader_cores00.lsq.warpCoalescedAccesses::25            0                       # Number of coalesced accesses per warp instruction
system.gpu.shader_cores00.lsq.warpCoalescedAccesses::26            0                       # Number of coalesced accesses per warp instruction
system.gpu.shader_cores00.lsq.warpCoalescedAccesses::27            0                       # Number of coalesced accesses per warp instruction
system.gpu.shader_cores00.lsq.warpCoalescedAccesses::28            0                       # Number of coalesced accesses per warp instruction
system.gpu.shader_cores00.lsq.warpCoalescedAccesses::29            0                       # Number of coalesced accesses per warp instruction
system.gpu.shader_cores00.lsq.warpCoalescedAccesses::30            0                       # Number of coalesced accesses per warp instruction
system.gpu.shader_cores00.lsq.warpCoalescedAccesses::31            0                       # Number of coalesced accesses per warp instruction
system.gpu.shader_cores00.lsq.warpCoalescedAccesses::32            0                       # Number of coalesced accesses per warp instruction
system.gpu.shader_cores00.lsq.warpCoalescedAccesses::total            0                       # Number of coalesced accesses per warp instruction
system.gpu.shader_cores00.lsq.warpLatencyRead::samples            0                       # Latency in cycles for whole warp to finish the read
system.gpu.shader_cores00.lsq.warpLatencyRead::mean          nan                       # Latency in cycles for whole warp to finish the read
system.gpu.shader_cores00.lsq.warpLatencyRead::gmean          nan                       # Latency in cycles for whole warp to finish the read
system.gpu.shader_cores00.lsq.warpLatencyRead::stdev          nan                       # Latency in cycles for whole warp to finish the read
system.gpu.shader_cores00.lsq.warpLatencyRead::0            0                       # Latency in cycles for whole warp to finish the read
system.gpu.shader_cores00.lsq.warpLatencyRead::1            0                       # Latency in cycles for whole warp to finish the read
system.gpu.shader_cores00.lsq.warpLatencyRead::2            0                       # Latency in cycles for whole warp to finish the read
system.gpu.shader_cores00.lsq.warpLatencyRead::3            0                       # Latency in cycles for whole warp to finish the read
system.gpu.shader_cores00.lsq.warpLatencyRead::4            0                       # Latency in cycles for whole warp to finish the read
system.gpu.shader_cores00.lsq.warpLatencyRead::5            0                       # Latency in cycles for whole warp to finish the read
system.gpu.shader_cores00.lsq.warpLatencyRead::6            0                       # Latency in cycles for whole warp to finish the read
system.gpu.shader_cores00.lsq.warpLatencyRead::7            0                       # Latency in cycles for whole warp to finish the read
system.gpu.shader_cores00.lsq.warpLatencyRead::8            0                       # Latency in cycles for whole warp to finish the read
system.gpu.shader_cores00.lsq.warpLatencyRead::9            0                       # Latency in cycles for whole warp to finish the read
system.gpu.shader_cores00.lsq.warpLatencyRead::10            0                       # Latency in cycles for whole warp to finish the read
system.gpu.shader_cores00.lsq.warpLatencyRead::11            0                       # Latency in cycles for whole warp to finish the read
system.gpu.shader_cores00.lsq.warpLatencyRead::12            0                       # Latency in cycles for whole warp to finish the read
system.gpu.shader_cores00.lsq.warpLatencyRead::13            0                       # Latency in cycles for whole warp to finish the read
system.gpu.shader_cores00.lsq.warpLatencyRead::14            0                       # Latency in cycles for whole warp to finish the read
system.gpu.shader_cores00.lsq.warpLatencyRead::15            0                       # Latency in cycles for whole warp to finish the read
system.gpu.shader_cores00.lsq.warpLatencyRead::total            0                       # Latency in cycles for whole warp to finish the read
system.gpu.shader_cores00.lsq.warpLatencyWrite::samples            0                       # Latency in cycles for whole warp to finish the write
system.gpu.shader_cores00.lsq.warpLatencyWrite::mean          nan                       # Latency in cycles for whole warp to finish the write
system.gpu.shader_cores00.lsq.warpLatencyWrite::gmean          nan                       # Latency in cycles for whole warp to finish the write
system.gpu.shader_cores00.lsq.warpLatencyWrite::stdev          nan                       # Latency in cycles for whole warp to finish the write
system.gpu.shader_cores00.lsq.warpLatencyWrite::0            0                       # Latency in cycles for whole warp to finish the write
[...]
system.ruby.Directory.miss_latency_hist.issue_to_initial_request::bucket_size            1                      
system.ruby.Directory.miss_latency_hist.issue_to_initial_request::max_bucket            9                      
system.ruby.Directory.miss_latency_hist.issue_to_initial_request::samples          229                      
system.ruby.Directory.miss_latency_hist.issue_to_initial_request::mean            1                      
system.ruby.Directory.miss_latency_hist.issue_to_initial_request::gmean            1                      
system.ruby.Directory.miss_latency_hist.issue_to_initial_request |           0      0.00%      0.00% |         229    100.00%    100.00% |           0      0.00%    100.00% |           0      0.00%    100.00% |           0      0.00%    100.00% |           0      0.00%    100.00% |           0      0.00%    100.00% |           0      0.00%    100.00% |           0      0.00%    100.00% |           0      0.00%    100.00%
system.ruby.Directory.miss_latency_hist.issue_to_initial_request::total          229                      
system.ruby.Directory.miss_latency_hist.initial_to_forward::bucket_size            1                      
system.ruby.Directory.miss_latency_hist.initial_to_forward::max_bucket            9                      
system.ruby.Directory.miss_latency_hist.initial_to_forward::samples          229                      
system.ruby.Directory.miss_latency_hist.initial_to_forward::mean            5                      
system.ruby.Directory.miss_latency_hist.initial_to_forward::gmean     5.000000                      
system.ruby.Directory.miss_latency_hist.initial_to_forward |           0      0.00%      0.00% |           0      0.00%      0.00% |           0      0.00%      0.00% |           0      0.00%      0.00% |           0      0.00%      0.00% |         229    100.00%    100.00% |           0      0.00%    100.00% |           0      0.00%    100.00% |           0      0.00%    100.00% |           0      0.00%    100.00%
system.ruby.Directory.miss_latency_hist.initial_to_forward::total          229                      
system.ruby.Directory.miss_latency_hist.forward_to_first_response::bucket_size            2                      
system.ruby.Directory.miss_latency_hist.forward_to_first_response::max_bucket           19                      
system.ruby.Directory.miss_latency_hist.forward_to_first_response::samples          229                      
system.ruby.Directory.miss_latency_hist.forward_to_first_response::mean           17                      
system.ruby.Directory.miss_latency_hist.forward_to_first_response::gmean    17.000000                      
system.ruby.Directory.miss_latency_hist.forward_to_first_response |           0      0.00%      0.00% |           0      0.00%      0.00% |           0      0.00%      0.00% |           0      0.00%      0.00% |           0      0.00%      0.00% |           0      0.00%      0.00% |           0      0.00%      0.00% |           0      0.00%      0.00% |         229    100.00%    100.00% |           0      0.00%    100.00%
system.ruby.Directory.miss_latency_hist.forward_to_first_response::total          229                      
system.ruby.Directory.miss_latency_hist.first_response_to_completion::bucket_size           64                      
system.ruby.Directory.miss_latency_hist.first_response_to_completion::max_bucket          639                      
system.ruby.Directory.miss_latency_hist.first_response_to_completion::samples          229                      
system.ruby.Directory.miss_latency_hist.first_response_to_completion::mean    99.650655                      
system.ruby.Directory.miss_latency_hist.first_response_to_completion::gmean    94.242504                      
system.ruby.Directory.miss_latency_hist.first_response_to_completion::stdev    52.661367                      
system.ruby.Directory.miss_latency_hist.first_response_to_completion |           0      0.00%      0.00% |         175     76.42%     76.42% |          52     22.71%     99.13% |           0      0.00%     99.13% |           0      0.00%     99.13% |           0      0.00%     99.13% |           0      0.00%     99.13% |           0      0.00%     99.13% |           0      0.00%     99.13% |           2      0.87%    100.00%
system.ruby.Directory.miss_latency_hist.first_response_to_completion::total          229                      
system.ruby.LD.L1Cache.hit_type_mach_latency_hist::bucket_size            1                      
system.ruby.LD.L1Cache.hit_type_mach_latency_hist::max_bucket            9                      
system.ruby.LD.L1Cache.hit_type_mach_latency_hist::samples         1027                      
system.ruby.LD.L1Cache.hit_type_mach_latency_hist::mean            1                      
system.ruby.LD.L1Cache.hit_type_mach_latency_hist::gmean            1                      
system.ruby.LD.L1Cache.hit_type_mach_latency_hist |           0      0.00%      0.00% |        1027    100.00%    100.00% |           0      0.00%    100.00% |           0      0.00%    100.00% |           0      0.00%    100.00% |           0      0.00%    100.00% |           0      0.00%    100.00% |           0      0.00%    100.00% |           0      0.00%    100.00% |           0      0.00%    100.00%
system.ruby.LD.L1Cache.hit_type_mach_latency_hist::total         1027                      
system.ruby.LD.Directory.miss_type_mach_latency_hist::bucket_size           16                      
system.ruby.LD.Directory.miss_type_mach_latency_hist::max_bucket          159                      
system.ruby.LD.Directory.miss_type_mach_latency_hist::samples           42                      
system.ruby.LD.Directory.miss_type_mach_latency_hist::mean   132.357143                      
system.ruby.LD.Directory.miss_type_mach_latency_hist::gmean   129.843842                      
system.ruby.LD.Directory.miss_type_mach_latency_hist::stdev    25.471956                      
system.ruby.LD.Directory.miss_type_mach_latency_hist |           0      0.00%      0.00% |           0      0.00%      0.00% |           0      0.00%      0.00% |           0      0.00%      0.00% |           0      0.00%      0.00% |           0      0.00%      0.00% |          15     35.71%     35.71% |           0      0.00%     35.71% |           6     14.29%     50.00% |          21     50.00%    100.00%
system.ruby.LD.Directory.miss_type_mach_latency_hist::total           42                      
system.ruby.ST.L1Cache.hit_type_mach_latency_hist::bucket_size            1                      
system.ruby.ST.L1Cache.hit_type_mach_latency_hist::max_bucket            9                      
system.ruby.ST.L1Cache.hit_type_mach_latency_hist::samples          894                      
system.ruby.ST.L1Cache.hit_type_mach_latency_hist::mean            1                      
system.ruby.ST.L1Cache.hit_type_mach_latency_hist::gmean            1                      
system.ruby.ST.L1Cache.hit_type_mach_latency_hist |           0      0.00%      0.00% |         894    100.00%    100.00% |           0      0.00%    100.00% |           0      0.00%    100.00% |           0      0.00%    100.00% |           0      0.00%    100.00% |           0      0.00%    100.00% |           0      0.00%    100.00% |           0      0.00%    100.00% |           0      0.00%    100.00%
system.ruby.ST.L1Cache.hit_type_mach_latency_hist::total          894                      
system.ruby.ST.Directory.miss_type_mach_latency_hist::bucket_size           16                      
system.ruby.ST.Directory.miss_type_mach_latency_hist::max_bucket          159                      
system.ruby.ST.Directory.miss_type_mach_latency_hist::samples           47                      
system.ruby.ST.Directory.miss_type_mach_latency_hist::mean   114.957447                      
system.ruby.ST.Directory.miss_type_mach_latency_hist::gmean   113.232487                      
system.ruby.ST.Directory.miss_type_mach_latency_hist::stdev    21.303151                      
system.ruby.ST.Directory.miss_type_mach_latency_hist |           0      0.00%      0.00% |           0      0.00%      0.00% |           0      0.00%      0.00% |           0      0.00%      0.00% |           0      0.00%      0.00% |           0      0.00%      0.00% |          31     65.96%     65.96% |           0      0.00%     65.96% |           8     17.02%     82.98% |           8     17.02%    100.00%
system.ruby.ST.Directory.miss_type_mach_latency_hist::total           47                      
system.ruby.IFETCH.L1Cache.hit_type_mach_latency_hist::bucket_size            1                      
system.ruby.IFETCH.L1Cache.hit_type_mach_latency_hist::max_bucket            9                      
system.ruby.IFETCH.L1Cache.hit_type_mach_latency_hist::samples         7152                      
system.ruby.IFETCH.L1Cache.hit_type_mach_latency_hist::mean            1                      
system.ruby.IFETCH.L1Cache.hit_type_mach_latency_hist::gmean            1                      
system.ruby.IFETCH.L1Cache.hit_type_mach_latency_hist |           0      0.00%      0.00% |        7152    100.00%    100.00% |           0      0.00%    100.00% |           0      0.00%    100.00% |           0      0.00%    100.00% |           0      0.00%    100.00% |           0      0.00%    100.00% |           0      0.00%    100.00% |           0      0.00%    100.00% |           0      0.00%    100.00%
system.ruby.IFETCH.L1Cache.hit_type_mach_latency_hist::total         7152                      
system.ruby.IFETCH.L2Cache.hit_type_mach_latency_hist::bucket_size            2                      
system.ruby.IFETCH.L2Cache.hit_type_mach_latency_hist::max_bucket           19                      
system.ruby.IFETCH.L2Cache.hit_type_mach_latency_hist::samples            3                      
system.ruby.IFETCH.L2Cache.hit_type_mach_latency_hist::mean           16                      
system.ruby.IFETCH.L2Cache.hit_type_mach_latency_hist::gmean    16.000000                      
system.ruby.IFETCH.L2Cache.hit_type_mach_latency_hist |           0      0.00%      0.00% |           0      0.00%      0.00% |           0      0.00%      0.00% |           0      0.00%      0.00% |           0      0.00%      0.00% |           0      0.00%      0.00% |           0      0.00%      0.00% |           0      0.00%      0.00% |           3    100.00%    100.00% |           0      0.00%    100.00%
system.ruby.IFETCH.L2Cache.hit_type_mach_latency_hist::total            3                      
system.ruby.IFETCH.Directory.miss_type_mach_latency_hist::bucket_size          128                      
system.ruby.IFETCH.Directory.miss_type_mach_latency_hist::max_bucket         1279                      
system.ruby.IFETCH.Directory.miss_type_mach_latency_hist::samples          140                      
system.ruby.IFETCH.Directory.miss_type_mach_latency_hist::mean   122.321429                      
system.ruby.IFETCH.Directory.miss_type_mach_latency_hist::gmean   116.082886                      
system.ruby.IFETCH.Directory.miss_type_mach_latency_hist::stdev    64.488164                      
system.ruby.IFETCH.Directory.miss_type_mach_latency_hist |          91     65.00%     65.00% |          47     33.57%     98.57% |           0      0.00%     98.57% |           0      0.00%     98.57% |           1      0.71%     99.29% |           1      0.71%    100.00% |           0      0.00%    100.00% |           0      0.00%    100.00% |           0      0.00%    100.00% |           0      0.00%    100.00%
system.ruby.IFETCH.Directory.miss_type_mach_latency_hist::total          140                      
system.ruby.RMW_Read.L1Cache.hit_type_mach_latency_hist::bucket_size            1                      
system.ruby.RMW_Read.L1Cache.hit_type_mach_latency_hist::max_bucket            9                      
system.ruby.RMW_Read.L1Cache.hit_type_mach_latency_hist::samples            8                      
system.ruby.RMW_Read.L1Cache.hit_type_mach_latency_hist::mean            1                      
system.ruby.RMW_Read.L1Cache.hit_type_mach_latency_hist::gmean            1                      
system.ruby.RMW_Read.L1Cache.hit_type_mach_latency_hist |           0      0.00%      0.00% |           8    100.00%    100.00% |           0      0.00%    100.00% |           0      0.00%    100.00% |           0      0.00%    100.00% |           0      0.00%    100.00% |           0      0.00%    100.00% |           0      0.00%    100.00% |           0      0.00%    100.00% |           0      0.00%    100.00%
system.ruby.RMW_Read.L1Cache.hit_type_mach_latency_hist::total            8                      
system.ruby.Directory_Controller.GETX              47      0.00%      0.00%
system.ruby.Directory_Controller.GETS             182      0.00%      0.00%
system.ruby.Directory_Controller.UnblockM          229      0.00%      0.00%
system.ruby.Directory_Controller.Memory_Data          229      0.00%      0.00%
system.ruby.Directory_Controller.E.GETX            47      0.00%      0.00%
system.ruby.Directory_Controller.E.GETS           182      0.00%      0.00%
system.ruby.Directory_Controller.NO_B.UnblockM          229      0.00%      0.00%
system.ruby.Directory_Controller.NO_B_W.Memory_Data          229      0.00%      0.00%
system.ruby.L1Cache_Controller.Load      |        1069    100.00%    100.00% |           0      0.00%    100.00%
system.ruby.L1Cache_Controller.Load::total         1069                      
system.ruby.L1Cache_Controller.Ifetch    |        7295    100.00%    100.00% |           0      0.00%    100.00%
system.ruby.L1Cache_Controller.Ifetch::total         7295                      
system.ruby.L1Cache_Controller.Store     |         949    100.00%    100.00% |           0      0.00%    100.00%
system.ruby.L1Cache_Controller.Store::total          949                      
system.ruby.L1Cache_Controller.L1_to_L2  |          16    100.00%    100.00% |           0      0.00%    100.00%
system.ruby.L1Cache_Controller.L1_to_L2::total           16                      
system.ruby.L1Cache_Controller.Trigger_L2_to_L1I |           3    100.00%    100.00% |           0      0.00%    100.00%
system.ruby.L1Cache_Controller.Trigger_L2_to_L1I::total            3                      
system.ruby.L1Cache_Controller.Complete_L2_to_L1 |           3    100.00%    100.00% |           0      0.00%    100.00%
system.ruby.L1Cache_Controller.Complete_L2_to_L1::total            3                      
system.ruby.L1Cache_Controller.Other_GETX |           0      0.00%      0.00% |          47    100.00%    100.00%
system.ruby.L1Cache_Controller.Other_GETX::total           47                      
system.ruby.L1Cache_Controller.Other_GETS |           0      0.00%      0.00% |         182    100.00%    100.00%
system.ruby.L1Cache_Controller.Other_GETS::total          182                      
system.ruby.L1Cache_Controller.Ack       |         458    100.00%    100.00% |           0      0.00%    100.00%
system.ruby.L1Cache_Controller.Ack::total          458                      
system.ruby.L1Cache_Controller.Exclusive_Data |         229    100.00%    100.00% |           0      0.00%    100.00%
system.ruby.L1Cache_Controller.Exclusive_Data::total          229                      
system.ruby.L1Cache_Controller.All_acks_no_sharers |         229    100.00%    100.00% |           0      0.00%    100.00%
system.ruby.L1Cache_Controller.All_acks_no_sharers::total          229                      
system.ruby.L1Cache_Controller.I.Load    |          42    100.00%    100.00% |           0      0.00%    100.00%
system.ruby.L1Cache_Controller.I.Load::total           42                      
system.ruby.L1Cache_Controller.I.Ifetch  |         140    100.00%    100.00% |           0      0.00%    100.00%
system.ruby.L1Cache_Controller.I.Ifetch::total          140                      
system.ruby.L1Cache_Controller.I.Store   |          47    100.00%    100.00% |           0      0.00%    100.00%
system.ruby.L1Cache_Controller.I.Store::total           47                      
system.ruby.L1Cache_Controller.I.Other_GETX |           0      0.00%      0.00% |          47    100.00%    100.00%
system.ruby.L1Cache_Controller.I.Other_GETX::total           47                      
system.ruby.L1Cache_Controller.I.Other_GETS |           0      0.00%      0.00% |         182    100.00%    100.00%
system.ruby.L1Cache_Controller.I.Other_GETS::total          182                      
system.ruby.L1Cache_Controller.M.Load    |         232    100.00%    100.00% |           0      0.00%    100.00%
system.ruby.L1Cache_Controller.M.Load::total          232                      
system.ruby.L1Cache_Controller.M.Ifetch  |        7152    100.00%    100.00% |           0      0.00%    100.00%
system.ruby.L1Cache_Controller.M.Ifetch::total         7152                      
system.ruby.L1Cache_Controller.M.Store   |          16    100.00%    100.00% |           0      0.00%    100.00%
system.ruby.L1Cache_Controller.M.Store::total           16                      
system.ruby.L1Cache_Controller.M.L1_to_L2 |          16    100.00%    100.00% |           0      0.00%    100.00%
system.ruby.L1Cache_Controller.M.L1_to_L2::total           16                      
system.ruby.L1Cache_Controller.M.Trigger_L2_to_L1I |           3    100.00%    100.00% |           0      0.00%    100.00%
system.ruby.L1Cache_Controller.M.Trigger_L2_to_L1I::total            3                      
system.ruby.L1Cache_Controller.MM.Load   |         795    100.00%    100.00% |           0      0.00%    100.00%
system.ruby.L1Cache_Controller.MM.Load::total          795                      
system.ruby.L1Cache_Controller.MM.Store  |         886    100.00%    100.00% |           0      0.00%    100.00%
system.ruby.L1Cache_Controller.MM.Store::total          886                      
system.ruby.L1Cache_Controller.MR.Ifetch |           3    100.00%    100.00% |           0      0.00%    100.00%
system.ruby.L1Cache_Controller.MR.Ifetch::total            3                      
system.ruby.L1Cache_Controller.IM.Ack    |          94    100.00%    100.00% |           0      0.00%    100.00%
system.ruby.L1Cache_Controller.IM.Ack::total           94                      
system.ruby.L1Cache_Controller.IM.Exclusive_Data |          47    100.00%    100.00% |           0      0.00%    100.00%
system.ruby.L1Cache_Controller.IM.Exclusive_Data::total           47                      
system.ruby.L1Cache_Controller.M_W.All_acks_no_sharers |         182    100.00%    100.00% |           0      0.00%    100.00%
system.ruby.L1Cache_Controller.M_W.All_acks_no_sharers::total          182                      
system.ruby.L1Cache_Controller.MM_W.All_acks_no_sharers |          47    100.00%    100.00% |           0      0.00%    100.00%
system.ruby.L1Cache_Controller.MM_W.All_acks_no_sharers::total           47                      
system.ruby.L1Cache_Controller.IS.Ack    |         364    100.00%    100.00% |           0      0.00%    100.00%
system.ruby.L1Cache_Controller.IS.Ack::total          364                      
system.ruby.L1Cache_Controller.IS.Exclusive_Data |         182    100.00%    100.00% |           0      0.00%    100.00%
system.ruby.L1Cache_Controller.IS.Exclusive_Data::total          182                      
system.ruby.L1Cache_Controller.MT.Complete_L2_to_L1 |           3    100.00%    100.00% |           0      0.00%    100.00%
system.ruby.L1Cache_Controller.MT.Complete_L2_to_L1::total            3                      
system.ruby.GPUL2Cache_Controller.Other_GETX           47      0.00%      0.00%
system.ruby.GPUL2Cache_Controller.Other_GETS          182      0.00%      0.00%
system.ruby.GPUL2Cache_Controller.I.Other_GETX           47      0.00%      0.00%
system.ruby.GPUL2Cache_Controller.I.Other_GETS          182      0.00%      0.00%

---------- End Simulation Statistics   ----------
